-------------------------------------------------------
          Amber 20 PMEMD                              2020
          -------------------------------------------------------

  [-O]verwriting output

File Assignments:

 Here is the input file:

20 ps solute restrained NVT equilibration using Langevin thermostat
&cntrl
  irest     = 0,
  ntx       = 1,
  ig        = -1,
  dt        = 0.002,
  nstlim    = 10000,
  nscm      = 500,
  ntr       = 1,
  restraint_wt  = 1.0,
  restraintmask = '!:WAT & !@H',
  ntb       = 1,
  ntp       = 0,
  ntt       = 3,
  tempi     = 298.0,
  temp0     = 298.0,
  gamma_ln  = 1.0,
  ntf       = 2,
  ntc       = 2,
  cut       = 10.0,
  ntpr      = 500,
  ntxo      = 2,
  ntwr      = 10000,
  ioutfm    = 1,
  ntwx      = 500,
  iwrap     = 1,
&end

Note: ig = -1. Setting random seed to   854143 based on wallclock time in
      microseconds and disabling the synchronization of random numbers
      between tasks to improve performance.

--------------------------------------------------------------------------------
   1.  RESOURCE   USE:
--------------------------------------------------------------------------------

 getting box info from netcdf restart file
 NATOM  =   14075 NTYPES =      19 NBONH =   13600 MBONA  =     449
 NTHETH =     935 MTHETA =     611 NPHIH =    1830 MPHIA  =    2019
 NHPARM =       0 NPARM  =       0 NNB   =   22297 NRES   =    4486
 NBONA  =     449 NTHETA =     611 NPHIA =    2019 NUMBND =      75
 NUMANG =     166 NPTRA  =     333 NATYP =      42 NPHB   =       0
 IFBOX  =       2 NMXRS  =      24 IFCAP =       0 NEXTRA =       0
 NCOPY  =       0

     BOX TYPE: TRUNCATED OCTAHEDRON

--------------------------------------------------------------------------------
   2.  CONTROL  DATA  FOR  THE  RUN
--------------------------------------------------------------------------------

default_name

General flags:
     imin    =       0, nmropt  =       0

Nature and format of input:
     ntx     =       1, irest   =       0, ntrx    =       1

Nature and format of output:
     ntxo    =       2, ntpr    =     500, ntrx    =       1, ntwr    =   10000
     iwrap   =       1, ntwx    =     500, ntwv    =       0, ntwe    =       0
     ioutfm  =       1, ntwprt  =       0, idecomp =       0, rbornstat=      0

Potential function:
     ntf     =       2, ntb     =       1, igb     =       0, nsnb    =      25
     ipol    =       0, gbsa    =       0, iesp    =       0
     dielc   =   1.00000, cut     =  10.00000, intdiel =   1.00000

Frozen or restrained atoms:
     ibelly  =       0, ntr     =       1
     restraint_wt =   1.00000

Molecular dynamics:
     nstlim  =     10000, nscm    =         0, nrespa  =         1
     t       =   0.00000, dt      =   0.00200, vlimit  =  20.00000

Langevin dynamics temperature regulation:
     ig      =  854143
     temp0   = 298.00000, tempi   = 298.00000, gamma_ln=   1.00000

SHAKE:
     ntc     =       2, jfastw  =       0
     tol     =   0.00001

Ewald parameters:
     verbose =       0, ew_type =       0, nbflag  =       1, use_pme =       1
     vdwmeth =       1, eedmeth =       1, netfrc  =       1
     Box X =   59.599   Box Y =   59.599   Box Z =   59.599
     Alpha =  109.471   Beta  =  109.471   Gamma =  109.471
     NFFT1 =   60       NFFT2 =   60       NFFT3 =   60
     Cutoff=   10.000   Tol   =0.100E-04
     Ewald Coefficient =  0.27511
     Interpolation order =    4

    LOADING THE CONSTRAINED ATOMS AS GROUPS

   5.  REFERENCE ATOM COORDINATES

  default_name
     Mask !:WAT & !@H; matches   832 atoms

--------------------------------------------------------------------------------
   3.  ATOMIC COORDINATES AND VELOCITIES
--------------------------------------------------------------------------------

default_name
 begin time read from input coords =     0.000 ps

 Number of triangulated 3-point waters found:     4396

     Sum of charges from parm topology file =  -0.00000483
     Forcing neutrality...

--------------------------------------------------------------------------------
   4.  RESULTS
 NSTEP =        0   TIME(PS) =       0.000  TEMP(K) =   437.73  PRESS =     0.0
 Etot   =    -64789.7712  EKtot   =     12449.8245  EPtot      =    -77239.5957
 BOND   =        36.4342  ANGLE   =       163.7403  DIHED      =      -303.1162
 1-4 NB =       182.6794  1-4 EEL =      4378.3402  VDWAALS    =     16013.0752
 EELEC  =    -97710.7488  EHBOND  =         0.0000  RESTRAINT  =         0.0000
 Ewald error estimate:   0.2575E-03
 ------------------------------------------------------------------------------

      A V E R A G E S   O V E R      20 S T E P S

 NSTEP =    10000   TIME(PS) =      20.000  TEMP(K) =   294.52  PRESS =     0.0
 Etot   =    -47722.9935  EKtot   =      8376.7505  EPtot      =    -56099.7440
 BOND   =       171.3428  ANGLE   =       468.9299  DIHED      =      -236.2417
 1-4 NB =       207.3142  1-4 EEL =      4372.9943  VDWAALS    =      9288.2961
 EELEC  =    -70470.7971  EHBOND  =         0.0000  RESTRAINT  =        98.4175
 EAMBER (non-restraint)  =    -56198.1616
 Ewald error estimate:   0.7912E-04
 ------------------------------------------------------------------------------

      R M S  F L U C T U A T I O N S

 NSTEP =    10000   TIME(PS) =      20.000  TEMP(K) =    12.68  PRESS =     0.0
 Etot   =       803.6079  EKtot   =       360.5477  EPtot      =       453.1480
 BOND   =        14.6423  ANGLE   =        16.6730  DIHED      =         9.3152
 1-4 NB =         5.9173  1-4 EEL =        14.0515  VDWAALS    =       246.5512
 EELEC  =       641.4864  EHBOND  =         0.0000  RESTRAINT  =        10.9555
 EAMBER (non-restraint)  =       442.1925
 Ewald error estimate:   0.6072E-04
 ------------------------------------------------------------------------------
