-------------------------------------------------------
          Amber 20 PMEMD                              2020
          -------------------------------------------------------

  [-O]verwriting output

File Assignments:

 Here is the input file:

1 ns solute restrained NPT equilibration using Langevin thermostat and MC baros
&cntrl
  irest     = 1,
  ntx       = 5,
  ig        = -1,
  dt        = 0.002,
  nstlim    = 500000,
  nscm      = 500,
  ntr       = 1,
  restraint_wt  = 1.0,
  restraintmask = '!:WAT & !@H',
  ntb       = 2,
  ntp       = 1,
  barostat  = 2,
  pres0     = 1.0,
  mcbarint  = 100,
  comp      = 44.6,
  taup      = 1.0,
  ntt       = 3,
  temp0     = 298.0,
  gamma_ln  = 1.0,
  ntf       = 2,
  ntc       = 2,
  cut       = 10.0,
  ntpr      = 500,
  ntxo      = 2,
  ntwr      = 500000,
  ioutfm    = 1,
  ntwx      = 500,
  iwrap     = 1,
&end

Note: ig = -1. Setting random seed to   698809 based on wallclock time in
      microseconds and disabling the synchronization of random numbers
      between tasks to improve performance.

--------------------------------------------------------------------------------
   1.  RESOURCE   USE:
--------------------------------------------------------------------------------

 getting box info from netcdf restart file
 NATOM  =   55063 NTYPES =      26 NBONH =   53559 MBONA  =    1417
 NTHETH =    3168 MTHETA =    1917 NPHIH =    6077 MPHIA  =    6502
 NHPARM =       0 NPARM  =       0 NNB   =   85006 NRES   =   17681
 NBONA  =    1417 NTHETA =    1917 NPHIA =    6502 NUMBND =      94
 NUMANG =     217 NPTRA  =     440 NATYP =      52 NPHB   =       1
 IFBOX  =       2 NMXRS  =      24 IFCAP =       0 NEXTRA =       0
 NCOPY  =       0

     BOX TYPE: TRUNCATED OCTAHEDRON

--------------------------------------------------------------------------------
   2.  CONTROL  DATA  FOR  THE  RUN
--------------------------------------------------------------------------------

default_name

General flags:
     imin    =       0, nmropt  =       0

Nature and format of input:
     ntx     =       5, irest   =       1, ntrx    =       1

Nature and format of output:
     ntxo    =       2, ntpr    =     500, ntrx    =       1, ntwr    =  500000
     iwrap   =       1, ntwx    =     500, ntwv    =       0, ntwe    =       0
     ioutfm  =       1, ntwprt  =       0, idecomp =       0, rbornstat=      0

Potential function:
     ntf     =       2, ntb     =       2, igb     =       0, nsnb    =      25
     ipol    =       0, gbsa    =       0, iesp    =       0
     dielc   =   1.00000, cut     =  10.00000, intdiel =   1.00000

Frozen or restrained atoms:
     ibelly  =       0, ntr     =       1
     restraint_wt =   1.00000

Molecular dynamics:
     nstlim  =    500000, nscm    =         0, nrespa  =         1
     t       =   0.00000, dt      =   0.00200, vlimit  =  20.00000

Langevin dynamics temperature regulation:
     ig      =  698809
     temp0   = 298.00000, tempi   =   0.00000, gamma_ln=   1.00000

Pressure regulation:
     ntp     =       1
     pres0   =   1.00000, comp    =  44.60000, taup    =   1.00000
     Monte-Carlo Barostat:
     mcbarint  =     100

SHAKE:
     ntc     =       2, jfastw  =       0
     tol     =   0.00001

Ewald parameters:
     verbose =       0, ew_type =       0, nbflag  =       1, use_pme =       1
     vdwmeth =       1, eedmeth =       1, netfrc  =       1
     Box X =   92.775   Box Y =   92.775   Box Z =   92.775
     Alpha =  109.471   Beta  =  109.471   Gamma =  109.471
     NFFT1 =   96       NFFT2 =   96       NFFT3 =   96
     Cutoff=   10.000   Tol   =0.100E-04
     Ewald Coefficient =  0.27511
     Interpolation order =    4

    LOADING THE CONSTRAINED ATOMS AS GROUPS

   5.  REFERENCE ATOM COORDINATES

  default_name
     Mask !:WAT & !@H; matches  2731 atoms

--------------------------------------------------------------------------------
   3.  ATOMIC COORDINATES AND VELOCITIES
--------------------------------------------------------------------------------

default_name
 begin time read from input coords =    20.000 ps

 Number of triangulated 3-point waters found:    17390

     Sum of charges from parm topology file =  -0.00202102
     Forcing neutrality...

--------------------------------------------------------------------------------
   4.  RESULTS
 NSTEP =      500   TIME(PS) =      21.000  TEMP(K) =   296.91  PRESS =     0.0
 Etot   =   -186294.4281  EKtot   =     32931.9340  EPtot      =   -219226.3620
 BOND   =       606.9678  ANGLE   =      1650.4589  DIHED      =     -1340.6435
 1-4 NB =       651.6755  1-4 EEL =     10952.2980  VDWAALS    =     39384.9526
 EELEC  =   -271438.9995  EHBOND  =         0.0000  RESTRAINT  =       306.9283
 EAMBER (non-restraint)  =   -219533.2903
 EKCMT  =         0.0000  VIRIAL  =         0.0000  VOLUME     =    601468.8577
                                                    Density    =         0.9291
 Ewald error estimate:   0.1980E-04
 ------------------------------------------------------------------------------

      A V E R A G E S   O V E R    1000 S T E P S

 NSTEP =   500000   TIME(PS) =    1020.000  TEMP(K) =   298.06  PRESS =     0.0
 Etot   =   -189919.9110  EKtot   =     33059.0695  EPtot      =   -222978.9806
 BOND   =       567.9876  ANGLE   =      1622.7240  DIHED      =     -1342.2676
 1-4 NB =       664.7819  1-4 EEL =     10966.9292  VDWAALS    =     39621.9788
 EELEC  =   -275481.4094  EHBOND  =         0.0000  RESTRAINT  =       400.2949
 EAMBER (non-restraint)  =   -223379.2755
 EKCMT  =         0.0000  VIRIAL  =         0.0000  VOLUME     =    546119.2594
                                                    Density    =         1.0234
 Ewald error estimate:   0.6686E-04
 ------------------------------------------------------------------------------

      R M S  F L U C T U A T I O N S

 NSTEP =   500000   TIME(PS) =    1020.000  TEMP(K) =     1.24  PRESS =     0.0
 Etot   =       352.6575  EKtot   =       137.8674  EPtot      =       323.2387
 BOND   =        19.1336  ANGLE   =        30.3575  DIHED      =        13.8328
 1-4 NB =        10.9082  1-4 EEL =        30.4870  VDWAALS    =       268.4891
 EELEC  =       490.2146  EHBOND  =         0.0000  RESTRAINT  =        13.6361
 EAMBER (non-restraint)  =       309.6025
 EKCMT  =         0.0000  VIRIAL  =         0.0000  VOLUME     =      3655.0383
                                                    Density    =         0.0065
 Ewald error estimate:   0.4082E-04
 ------------------------------------------------------------------------------
