-------------------------------------------------------
          Amber 20 PMEMD                              2020
          -------------------------------------------------------

  [-O]verwriting output

File Assignments:

 Here is the input file:

1 ns unrestrained NPT equilibration using Langevin thermostat and MC barostat
&cntrl
  irest     = 1,
  ntx       = 5,
  ig        = -1,
  dt        = 0.002,
  nstlim    = 500000,
  nscm      = 500,
  ntr       = 0,
  ntb       = 2,
  ntp       = 1,
  barostat  = 2,
  pres0     = 1.0,
  mcbarint  = 100,
  comp      = 44.6,
  taup      = 1.0,
  ntt       = 3,
  temp0     = 298.0,
  gamma_ln  = 1.0,
  ntf       = 2,
  ntc       = 2,
  cut       = 10.0,
  ntpr      = 500,
  ntxo      = 2,
  ntwr      = 500000,
  ioutfm    = 1,
  ntwx      = 500,
  iwrap     = 1,
&end

Note: ig = -1. Setting random seed to   328239 based on wallclock time in
      microseconds and disabling the synchronization of random numbers
      between tasks to improve performance.

--------------------------------------------------------------------------------
   1.  RESOURCE   USE:
--------------------------------------------------------------------------------

 getting box info from netcdf restart file
 NATOM  =   55063 NTYPES =      26 NBONH =   53559 MBONA  =    1417
 NTHETH =    3168 MTHETA =    1917 NPHIH =    6077 MPHIA  =    6502
 NHPARM =       0 NPARM  =       0 NNB   =   85006 NRES   =   17681
 NBONA  =    1417 NTHETA =    1917 NPHIA =    6502 NUMBND =      94
 NUMANG =     217 NPTRA  =     440 NATYP =      52 NPHB   =       1
 IFBOX  =       2 NMXRS  =      24 IFCAP =       0 NEXTRA =       0
 NCOPY  =       0

     BOX TYPE: TRUNCATED OCTAHEDRON

--------------------------------------------------------------------------------
   2.  CONTROL  DATA  FOR  THE  RUN
--------------------------------------------------------------------------------

default_name

General flags:
     imin    =       0, nmropt  =       0

Nature and format of input:
     ntx     =       5, irest   =       1, ntrx    =       1

Nature and format of output:
     ntxo    =       2, ntpr    =     500, ntrx    =       1, ntwr    =  500000
     iwrap   =       1, ntwx    =     500, ntwv    =       0, ntwe    =       0
     ioutfm  =       1, ntwprt  =       0, idecomp =       0, rbornstat=      0

Potential function:
     ntf     =       2, ntb     =       2, igb     =       0, nsnb    =      25
     ipol    =       0, gbsa    =       0, iesp    =       0
     dielc   =   1.00000, cut     =  10.00000, intdiel =   1.00000

Frozen or restrained atoms:
     ibelly  =       0, ntr     =       0

Molecular dynamics:
     nstlim  =    500000, nscm    =       500, nrespa  =         1
     t       =   0.00000, dt      =   0.00200, vlimit  =  20.00000

Langevin dynamics temperature regulation:
     ig      =  328239
     temp0   = 298.00000, tempi   =   0.00000, gamma_ln=   1.00000

Pressure regulation:
     ntp     =       1
     pres0   =   1.00000, comp    =  44.60000, taup    =   1.00000
     Monte-Carlo Barostat:
     mcbarint  =     100

SHAKE:
     ntc     =       2, jfastw  =       0
     tol     =   0.00001

Ewald parameters:
     verbose =       0, ew_type =       0, nbflag  =       1, use_pme =       1
     vdwmeth =       1, eedmeth =       1, netfrc  =       1
     Box X =   89.208   Box Y =   89.208   Box Z =   89.208
     Alpha =  109.471   Beta  =  109.471   Gamma =  109.471
     NFFT1 =   90       NFFT2 =   90       NFFT3 =   90
     Cutoff=   10.000   Tol   =0.100E-04
     Ewald Coefficient =  0.27511
     Interpolation order =    4

--------------------------------------------------------------------------------
   3.  ATOMIC COORDINATES AND VELOCITIES
--------------------------------------------------------------------------------

default_name
 begin time read from input coords =  1020.000 ps

 Number of triangulated 3-point waters found:    17390

     Sum of charges from parm topology file =  -0.00202102
     Forcing neutrality...

--------------------------------------------------------------------------------
   4.  RESULTS
 NSTEP =      500   TIME(PS) =    1021.000  TEMP(K) =   296.91  PRESS =     0.0
 Etot   =   -190961.5173  EKtot   =     32931.7245  EPtot      =   -223893.2417
 BOND   =       556.7225  ANGLE   =      1610.2451  DIHED      =     -1330.0326
 1-4 NB =       672.0126  1-4 EEL =     11026.3051  VDWAALS    =     39888.5632
 EELEC  =   -276317.0577  EHBOND  =         0.0000  RESTRAINT  =         0.0000
 EKCMT  =         0.0000  VIRIAL  =         0.0000  VOLUME     =    545836.3215
                                                    Density    =         1.0238
 Ewald error estimate:   0.3197E-04
 ------------------------------------------------------------------------------

      A V E R A G E S   O V E R    1000 S T E P S

 NSTEP =   500000   TIME(PS) =    2020.000  TEMP(K) =   298.15  PRESS =     0.0
 Etot   =   -190672.6405  EKtot   =     33069.5167  EPtot      =   -223742.1572
 BOND   =       569.1622  ANGLE   =      1635.1392  DIHED      =     -1398.6463
 1-4 NB =       660.2278  1-4 EEL =     11051.7130  VDWAALS    =     39685.1774
 EELEC  =   -275944.9306  EHBOND  =         0.0000  RESTRAINT  =         0.0000
 EKCMT  =         0.0000  VIRIAL  =         0.0000  VOLUME     =    542335.9836
                                                    Density    =         1.0305
 Ewald error estimate:   0.6408E-04
 ------------------------------------------------------------------------------

      R M S  F L U C T U A T I O N S

 NSTEP =   500000   TIME(PS) =    2020.000  TEMP(K) =     1.23  PRESS =     0.0
 Etot   =       248.4109  EKtot   =       136.3033  EPtot      =       215.7576
 BOND   =        20.6264  ANGLE   =        30.6186  DIHED      =        21.0269
 1-4 NB =        11.4399  1-4 EEL =        38.3477  VDWAALS    =       258.1369
 EELEC  =       390.1034  EHBOND  =         0.0000  RESTRAINT  =         0.0000
 EKCMT  =         0.0000  VIRIAL  =         0.0000  VOLUME     =       959.3661
                                                    Density    =         0.0018
 Ewald error estimate:   0.4060E-04
 ------------------------------------------------------------------------------
