-------------------------------------------------------
          Amber 20 SANDER                              2020
          -------------------------------------------------------

  [-O]verwriting output

File Assignments:

 Here is the input file:

PCS Restrainted 1 ns NPT production using Langevin thermostat and MC barostat
&cntrl
  irest     = 1,
  ! no velicities from minimization so start new simulation
  !irest     = 0,
  ntx       = 5,
  ! set to 1 since no velocities read from minimization
  !ntx       = 1,
  ig        = -1,
  dt        = 0.002,
  nstlim    = 500000,
  nscm      = 500,
  ! turn on nmr restraints
  nmropt    = 2,
  ! use sum of squares optimization of errors
  ipnlty    = 2,
  ! minimize the sum of the absolute values of the errors;
  ! this is akin to minimizing the crystallographic R-factor (default)
  !ipnlty    = 1,
  ntr       = 0,
  ntb       = 2,
  ntp       = 1,
  barostat  = 2,
  pres0     = 1.0,
  mcbarint  = 100,
  comp      = 44.6,
  taup      = 1.0,
  ntt       = 3,
  temp0     = 298.0,
  gamma_ln  = 1.0,
  ntf       = 2,
  ntc       = 2,
  cut       = 10.0,
  ntpr      = 500,
  ntxo      = 2,
  ntwr      = 500000,
  ioutfm    = 1,
  ntwx      = 500,
  iwrap     = 1,
&end
! This essentially starts the nmr restraints after the first step
&wt
  type      = "REST",
  istep1    = 0,
  istep2    = 1,
  value1    = 0,
  value2    = 1.0,
  ! since starting from rest min, use restraints the whole time
  !value1    = 1.0,
&end
&wt
  type      = "END",
&end
PCSHIFT     = ./pcs-ntaco.in
LISTOUT     = POUT

--------------------------------------------------------------------------------
   1.  RESOURCE   USE:
--------------------------------------------------------------------------------

 getting box info from netcdf restart file
 NATOM  =   13701 NTYPES =      24 NBONH =   13210 MBONA  =     461
 NTHETH =     950 MTHETA =     626 NPHIH =    1872 MPHIA  =    2034
 NHPARM =       0 NPARM  =       0 NNB   =   21859 NRES   =    4358
 NBONA  =     461 NTHETA =     626 NPHIA =    2034 NUMBND =      79
 NUMANG =     173 NPTRA  =     338 NATYP =      47 NPHB   =       0
 IFBOX  =       2 NMXRS  =      24 IFCAP =       0 NEXTRA =       0
 NCOPY  =       0

     BOX TYPE: TRUNCATED OCTAHEDRON
Note: ig = -1. Setting random seed to    50945 based on wallclock time in microseconds
      and disabling the synchronization of random numbers between tasks
      to improve performance.

--------------------------------------------------------------------------------
   2.  CONTROL  DATA  FOR  THE  RUN
--------------------------------------------------------------------------------

default_name

General flags:
     imin    =       0, nmropt  =       2

Nature and format of input:
     ntx     =       5, irest   =       1, ntrx    =       1

Nature and format of output:
     ntxo    =       2, ntpr    =     500, ntrx    =       1, ntwr    =  500000
     iwrap   =       1, ntwx    =     500, ntwv    =       0, ntwe    =       0
     ioutfm  =       1, ntwprt  =       0, idecomp =       0, rbornstat=      0

Potential function:
     ntf     =       2, ntb     =       2, igb     =       0, nsnb    =      25
     ipol    =       0, gbsa    =       0, iesp    =       0
     dielc   =   1.00000, cut     =  10.00000, intdiel =   1.00000

Frozen or restrained atoms:
     ibelly  =       0, ntr     =       0

Molecular dynamics:
     nstlim  =    500000, nscm    =       500, nrespa  =         1
     t       =   0.00000, dt      =   0.00200, vlimit  =  20.00000

Langevin dynamics temperature regulation:
     ig      =   50945
     temp0   = 298.00000, tempi   =   0.00000, gamma_ln=   1.00000

Pressure regulation:
     ntp     =       1
     pres0   =   1.00000, comp    =  44.60000, taup    =   1.00000
     Monte-Carlo Barostat:
     mcbarint  =     100

SHAKE:
     ntc     =       2, jfastw  =       0
     tol     =   0.00001

NMR refinement options:
     iscale  =       0, noeskp  =       1, ipnlty  =       2, mxsub   =       1
     scalm   = 100.00000, pencut  =   0.10000, tausw   =   0.10000

Ewald parameters:
     verbose =       0, ew_type =       0, nbflag  =       1, use_pme =       1
     vdwmeth =       1, eedmeth =       1, netfrc  =       1
     Box X =   55.894   Box Y =   55.894   Box Z =   55.894
     Alpha =  109.471   Beta  =  109.471   Gamma =  109.471
     NFFT1 =   60       NFFT2 =   60       NFFT3 =   60
     Cutoff=   10.000   Tol   =0.100E-04
     Ewald Coefficient =  0.27511
     Interpolation order =    4

--------------------------------------------------------------------------------
   3.  ATOMIC COORDINATES AND VELOCITIES
--------------------------------------------------------------------------------

default_name
 begin time read from input coords =  4020.000 ps

           Begin reading energy term weight changes/NMR restraints
 WEIGHT CHANGES:
 REST          0      1    0.000000    1.000000      0      0

 RESTRAINTS:
 Requested file redirections:
  PCSHIFT   = ./pcs-ntaco.in
  LISTOUT   = POUT
                          ** No restraint defined **

                  Done reading weight changes/NMR restraints

 Number of triangulated 3-point waters found:     4264

     Sum of charges from parm topology file =  -0.00200670
     Forcing neutrality...

--------------------------------------------------------------------------------
   4.  RESULTS
 NSTEP =      500   TIME(PS) =    4021.000  TEMP(K) =   298.24  PRESS =  -230.0
 Etot   =    -48271.2383  EKtot   =      8265.5472  EPtot      =    -56536.7855
 BOND   =       180.8884  ANGLE   =       502.7652  DIHED      =      -251.0084
 1-4 NB =       211.6940  1-4 EEL =      4731.2739  VDWAALS    =      9552.0228
 EELEC  =    -71478.8412  EHBOND  =         0.0000  RESTRAINT  =        14.4198
 EAMBER (non-restraint)  =    -56551.2053
 EKCMT  =      3881.6687  VIRIAL  =      4549.0862  VOLUME     =    134423.9620
                                                    Density    =         1.0418
 Ewald error estimate:   0.1669E-04
 ------------------------------------------------------------------------------

      A V E R A G E S   O V E R  500000 S T E P S

 NSTEP =   500000   TIME(PS) =    5020.000  TEMP(K) =   298.02  PRESS =    -8.2
 Etot   =    -48298.4742  EKtot   =      8259.4339  EPtot      =    -56557.9081
 BOND   =       178.2059  ANGLE   =       501.5738  DIHED      =      -251.5394
 1-4 NB =       207.1482  1-4 EEL =      4724.3395  VDWAALS    =      9682.2834
 EELEC  =    -71614.2785  EHBOND  =         0.0000  RESTRAINT  =        14.3589
 EAMBER (non-restraint)  =    -56572.2669
 EKCMT  =      3839.5245  VIRIAL  =      3864.2825  VOLUME     =    134433.5552
                                                    Density    =         1.0418
 Ewald error estimate:   0.8279E-04
 ------------------------------------------------------------------------------

      R M S  F L U C T U A T I O N S

 NSTEP =   500000   TIME(PS) =    5020.000  TEMP(K) =     2.52  PRESS =   240.3
 Etot   =       130.9841  EKtot   =        69.8625  EPtot      =       110.7662
 BOND   =        11.3402  ANGLE   =        17.0385  DIHED      =         9.4119
 1-4 NB =         6.1521  1-4 EEL =        22.3063  VDWAALS    =       124.7708
 EELEC  =       193.8639  EHBOND  =         0.0000  RESTRAINT  =         0.0680
 EAMBER (non-restraint)  =       110.6982
 EKCMT  =        47.5203  VIRIAL  =       695.9912  VOLUME     =       449.5967
                                                    Density    =         0.0035
 Ewald error estimate:   0.6175E-04
 ------------------------------------------------------------------------------
