-------------------------------------------------------
          Amber 20 PMEMD                              2020
          -------------------------------------------------------

  [-O]verwriting output

File Assignments:

 Here is the input file:

20 ps solute restrained NVT equilibration using Langevin thermostat
&cntrl
  irest     = 0,
  ntx       = 1,
  ig        = -1,
  dt        = 0.002,
  nstlim    = 10000,
  nscm      = 500,
  ntr       = 1,
  restraint_wt  = 1.0,
  restraintmask = '!:WAT & !@H',
  ntb       = 1,
  ntp       = 0,
  ntt       = 3,
  tempi     = 298.0,
  temp0     = 298.0,
  gamma_ln  = 1.0,
  ntf       = 2,
  ntc       = 2,
  cut       = 10.0,
  ntpr      = 500,
  ntxo      = 2,
  ntwr      = 10000,
  ioutfm    = 1,
  ntwx      = 500,
  iwrap     = 1,
&end

Note: ig = -1. Setting random seed to   569547 based on wallclock time in
      microseconds and disabling the synchronization of random numbers
      between tasks to improve performance.

--------------------------------------------------------------------------------
   1.  RESOURCE   USE:
--------------------------------------------------------------------------------

 getting box info from netcdf restart file
 NATOM  =   13701 NTYPES =      24 NBONH =   13210 MBONA  =     461
 NTHETH =     950 MTHETA =     626 NPHIH =    1872 MPHIA  =    2034
 NHPARM =       0 NPARM  =       0 NNB   =   21859 NRES   =    4358
 NBONA  =     461 NTHETA =     626 NPHIA =    2034 NUMBND =      79
 NUMANG =     173 NPTRA  =     338 NATYP =      47 NPHB   =       0
 IFBOX  =       2 NMXRS  =      24 IFCAP =       0 NEXTRA =       0
 NCOPY  =       0

     BOX TYPE: TRUNCATED OCTAHEDRON

--------------------------------------------------------------------------------
   2.  CONTROL  DATA  FOR  THE  RUN
--------------------------------------------------------------------------------

default_name

General flags:
     imin    =       0, nmropt  =       0

Nature and format of input:
     ntx     =       1, irest   =       0, ntrx    =       1

Nature and format of output:
     ntxo    =       2, ntpr    =     500, ntrx    =       1, ntwr    =   10000
     iwrap   =       1, ntwx    =     500, ntwv    =       0, ntwe    =       0
     ioutfm  =       1, ntwprt  =       0, idecomp =       0, rbornstat=      0

Potential function:
     ntf     =       2, ntb     =       1, igb     =       0, nsnb    =      25
     ipol    =       0, gbsa    =       0, iesp    =       0
     dielc   =   1.00000, cut     =  10.00000, intdiel =   1.00000

Frozen or restrained atoms:
     ibelly  =       0, ntr     =       1
     restraint_wt =   1.00000

Molecular dynamics:
     nstlim  =     10000, nscm    =         0, nrespa  =         1
     t       =   0.00000, dt      =   0.00200, vlimit  =  20.00000

Langevin dynamics temperature regulation:
     ig      =  569547
     temp0   = 298.00000, tempi   = 298.00000, gamma_ln=   1.00000

SHAKE:
     ntc     =       2, jfastw  =       0
     tol     =   0.00001

Ewald parameters:
     verbose =       0, ew_type =       0, nbflag  =       1, use_pme =       1
     vdwmeth =       1, eedmeth =       1, netfrc  =       1
     Box X =   59.271   Box Y =   59.271   Box Z =   59.271
     Alpha =  109.471   Beta  =  109.471   Gamma =  109.471
     NFFT1 =   60       NFFT2 =   60       NFFT3 =   60
     Cutoff=   10.000   Tol   =0.100E-04
     Ewald Coefficient =  0.27511
     Interpolation order =    4

    LOADING THE CONSTRAINED ATOMS AS GROUPS

   5.  REFERENCE ATOM COORDINATES

  default_name
     Mask !:WAT & !@H; matches   854 atoms

--------------------------------------------------------------------------------
   3.  ATOMIC COORDINATES AND VELOCITIES
--------------------------------------------------------------------------------

default_name
 begin time read from input coords =     0.000 ps

 Number of triangulated 3-point waters found:     4264

     Sum of charges from parm topology file =  -0.00200670
     Forcing neutrality...

--------------------------------------------------------------------------------
   4.  RESULTS
 NSTEP =        0   TIME(PS) =       0.000  TEMP(K) =   441.08  PRESS =     0.0
 Etot   =    -63347.3589  EKtot   =     12224.1380  EPtot      =    -75571.4970
 BOND   =        37.5061  ANGLE   =       167.9316  DIHED      =      -294.4052
 1-4 NB =       188.6303  1-4 EEL =      4723.4475  VDWAALS    =     15806.4450
 EELEC  =    -96201.0523  EHBOND  =         0.0000  RESTRAINT  =         0.0000
 Ewald error estimate:   0.9689E-04
 ------------------------------------------------------------------------------

      A V E R A G E S   O V E R      20 S T E P S

 NSTEP =    10000   TIME(PS) =      20.000  TEMP(K) =   293.11  PRESS =     0.0
 Etot   =    -46794.5358  EKtot   =      8123.3286  EPtot      =    -54917.8643
 BOND   =       181.5473  ANGLE   =       482.3989  DIHED      =      -229.2753
 1-4 NB =       211.1690  1-4 EEL =      4714.2553  VDWAALS    =      9086.9493
 EELEC  =    -69461.5767  EHBOND  =         0.0000  RESTRAINT  =        96.6678
 EAMBER (non-restraint)  =    -55014.5321
 Ewald error estimate:   0.5978E-04
 ------------------------------------------------------------------------------

      R M S  F L U C T U A T I O N S

 NSTEP =    10000   TIME(PS) =      20.000  TEMP(K) =    12.86  PRESS =     0.0
 Etot   =       780.0894  EKtot   =       356.4119  EPtot      =       432.7604
 BOND   =         7.7847  ANGLE   =        21.9646  DIHED      =         7.7096
 1-4 NB =         6.0158  1-4 EEL =        16.6032  VDWAALS    =       247.4744
 EELEC  =       626.9857  EHBOND  =         0.0000  RESTRAINT  =         9.6096
 EAMBER (non-restraint)  =       423.1508
 Ewald error estimate:   0.4445E-04
 ------------------------------------------------------------------------------
