-------------------------------------------------------
          Amber 20 SANDER                              2020
          -------------------------------------------------------

  [-O]verwriting output

File Assignments:

 Here is the input file:

1 ns solute restrained NPT equilibration using Langevin thermostat and MC barostat
&cntrl
  irest     = 1,
  ntx       = 5,
  ig        = -1,
  dt        = 0.002,
  nstlim    = 500000,
  nscm      = 500,
  ntr       = 1,
  restraint_wt  = 1.0,
  restraintmask = '!:WAT & !@H',
  ntb       = 2,
  ntp       = 1,
  barostat  = 2,
  pres0     = 1.0,
  mcbarint  = 100,
  comp      = 44.6,
  taup      = 1.0,
  ntt       = 3,
  temp0     = 298.0,
  gamma_ln  = 1.0,
  ntf       = 2,
  ntc       = 2,
  cut       = 10.0,
  ntpr      = 500,
  ntxo      = 2,
  ntwr      = 500000,
  ioutfm    = 1,
  ntwx      = 500,
  iwrap     = 1,
&end

--------------------------------------------------------------------------------
   1.  RESOURCE   USE:
--------------------------------------------------------------------------------

 getting box info from netcdf restart file
 NATOM  =   14075 NTYPES =      19 NBONH =   13600 MBONA  =     449
 NTHETH =     935 MTHETA =     611 NPHIH =    1830 MPHIA  =    2019
 NHPARM =       0 NPARM  =       0 NNB   =   22297 NRES   =    4486
 NBONA  =     449 NTHETA =     611 NPHIA =    2019 NUMBND =      75
 NUMANG =     166 NPTRA  =     333 NATYP =      42 NPHB   =       0
 IFBOX  =       2 NMXRS  =      24 IFCAP =       0 NEXTRA =       0
 NCOPY  =       0

     BOX TYPE: TRUNCATED OCTAHEDRON
Note: ig = -1. Setting random seed to   459077 based on wallclock time in microseconds
      and disabling the synchronization of random numbers between tasks
      to improve performance.

--------------------------------------------------------------------------------
   2.  CONTROL  DATA  FOR  THE  RUN
--------------------------------------------------------------------------------

default_name

General flags:
     imin    =       0, nmropt  =       0

Nature and format of input:
     ntx     =       5, irest   =       1, ntrx    =       1

Nature and format of output:
     ntxo    =       2, ntpr    =     500, ntrx    =       1, ntwr    =  500000
     iwrap   =       1, ntwx    =     500, ntwv    =       0, ntwe    =       0
     ioutfm  =       1, ntwprt  =       0, idecomp =       0, rbornstat=      0

Potential function:
     ntf     =       2, ntb     =       2, igb     =       0, nsnb    =      25
     ipol    =       0, gbsa    =       0, iesp    =       0
     dielc   =   1.00000, cut     =  10.00000, intdiel =   1.00000

Frozen or restrained atoms:
     ibelly  =       0, ntr     =       1
     restraint_wt =   1.00000

Molecular dynamics:
     nstlim  =    500000, nscm    =         0, nrespa  =         1
     t       =   0.00000, dt      =   0.00200, vlimit  =  20.00000

Langevin dynamics temperature regulation:
     ig      =  459077
     temp0   = 298.00000, tempi   =   0.00000, gamma_ln=   1.00000

Pressure regulation:
     ntp     =       1
     pres0   =   1.00000, comp    =  44.60000, taup    =   1.00000
     Monte-Carlo Barostat:
     mcbarint  =     100

SHAKE:
     ntc     =       2, jfastw  =       0
     tol     =   0.00001

Ewald parameters:
     verbose =       0, ew_type =       0, nbflag  =       1, use_pme =       1
     vdwmeth =       1, eedmeth =       1, netfrc  =       1
     Box X =   59.599   Box Y =   59.599   Box Z =   59.599
     Alpha =  109.471   Beta  =  109.471   Gamma =  109.471
     NFFT1 =   60       NFFT2 =   60       NFFT3 =   60
     Cutoff=   10.000   Tol   =0.100E-04
     Ewald Coefficient =  0.27511
     Interpolation order =    4

    LOADING THE CONSTRAINED ATOMS AS GROUPS

   5.  REFERENCE ATOM COORDINATES

  defa
     Mask !:WAT & !@H; matches   832 atoms

--------------------------------------------------------------------------------
   3.  ATOMIC COORDINATES AND VELOCITIES
--------------------------------------------------------------------------------

default_name
 begin time read from input coords =    20.000 ps

 Number of triangulated 3-point waters found:     4396

     Sum of charges from parm topology file =  -0.00000483
     Forcing neutrality...

--------------------------------------------------------------------------------
   4.  RESULTS
 NSTEP =      500   TIME(PS) =      21.000  TEMP(K) =   297.61  PRESS =  -955.6
 Etot   =    -47763.8818  EKtot   =      8464.5005  EPtot      =    -56228.3824
 BOND   =       181.7580  ANGLE   =       448.6899  DIHED      =      -245.7104
 1-4 NB =       205.4765  1-4 EEL =      4372.1727  VDWAALS    =      9675.7167
 EELEC  =    -70954.9929  EHBOND  =         0.0000  RESTRAINT  =        88.5071
 EAMBER (non-restraint)  =    -56316.8895
 EKCMT  =      3917.4969  VIRIAL  =      7236.7061  VOLUME     =    160863.9114
                                                    Density    =         0.8925
 Ewald error estimate:   0.1294E-03
 ------------------------------------------------------------------------------

      A V E R A G E S   O V E R  500000 S T E P S

 NSTEP =   500000   TIME(PS) =    1020.000  TEMP(K) =   298.15  PRESS =    10.1
 Etot   =    -49011.4395  EKtot   =      8479.9624  EPtot      =    -57491.4019
 BOND   =       172.0430  ANGLE   =       469.2458  DIHED      =      -237.5894
 1-4 NB =       208.0428  1-4 EEL =      4371.8985  VDWAALS    =      9982.8242
 EELEC  =    -72569.2287  EHBOND  =         0.0000  RESTRAINT  =       111.3618
 EAMBER (non-restraint)  =    -57602.7637
 EKCMT  =      3957.0589  VIRIAL  =      3932.9353  VOLUME     =    138816.2485
                                                    Density    =         1.0344
 Ewald error estimate:   0.8071E-04
 ------------------------------------------------------------------------------

      R M S  F L U C T U A T I O N S

 NSTEP =   500000   TIME(PS) =    1020.000  TEMP(K) =     2.52  PRESS =   272.2
 Etot   =       171.2007  EKtot   =        71.5611  EPtot      =       151.9777
 BOND   =        11.0056  ANGLE   =        16.0016  DIHED      =         7.7364
 1-4 NB =         5.7966  1-4 EEL =        18.1656  VDWAALS    =       133.9970
 EELEC  =       243.8117  EHBOND  =         0.0000  RESTRAINT  =         6.9303
 EAMBER (non-restraint)  =       145.0474
 EKCMT  =        48.7985  VIRIAL  =       838.8881  VOLUME     =      1912.3542
                                                    Density    =         0.0128
 Ewald error estimate:   0.6033E-04
 ------------------------------------------------------------------------------
