-------------------------------------------------------
          Amber 20 SANDER                              2020
          -------------------------------------------------------

  [-O]verwriting output

File Assignments:

 Here is the input file:

20 ps solute restrained NVT equilibration using Langevin thermostat
&cntrl
  irest     = 0,
  ntx       = 1,
  ig        = -1,
  dt        = 0.002,
  nstlim    = 10000,
  nscm      = 500,
  ntr       = 1,
  restraint_wt  = 1.0,
  restraintmask = '!:WAT & !@H',
  ntb       = 1,
  ntp       = 0,
  ntt       = 3,
  tempi     = 298.0,
  temp0     = 298.0,
  gamma_ln  = 1.0,
  ntf       = 2,
  ntc       = 2,
  cut       = 10.0,
  ntpr      = 500,
  ntxo      = 2,
  ntwr      = 10000,
  ioutfm    = 1,
  ntwx      = 500,
  iwrap     = 1,
&end

--------------------------------------------------------------------------------
   1.  RESOURCE   USE:
--------------------------------------------------------------------------------

 getting box info from netcdf restart file
 NATOM  =   55063 NTYPES =      26 NBONH =   53559 MBONA  =    1417
 NTHETH =    3168 MTHETA =    1917 NPHIH =    6077 MPHIA  =    6502
 NHPARM =       0 NPARM  =       0 NNB   =   85006 NRES   =   17681
 NBONA  =    1417 NTHETA =    1917 NPHIA =    6502 NUMBND =      94
 NUMANG =     217 NPTRA  =     440 NATYP =      52 NPHB   =       1
 IFBOX  =       2 NMXRS  =      24 IFCAP =       0 NEXTRA =       0
 NCOPY  =       0

     BOX TYPE: TRUNCATED OCTAHEDRON
Note: ig = -1. Setting random seed to     5402 based on wallclock time in microseconds
      and disabling the synchronization of random numbers between tasks
      to improve performance.

--------------------------------------------------------------------------------
   2.  CONTROL  DATA  FOR  THE  RUN
--------------------------------------------------------------------------------

default_name

General flags:
     imin    =       0, nmropt  =       0

Nature and format of input:
     ntx     =       1, irest   =       0, ntrx    =       1

Nature and format of output:
     ntxo    =       2, ntpr    =     500, ntrx    =       1, ntwr    =   10000
     iwrap   =       1, ntwx    =     500, ntwv    =       0, ntwe    =       0
     ioutfm  =       1, ntwprt  =       0, idecomp =       0, rbornstat=      0

Potential function:
     ntf     =       2, ntb     =       1, igb     =       0, nsnb    =      25
     ipol    =       0, gbsa    =       0, iesp    =       0
     dielc   =   1.00000, cut     =  10.00000, intdiel =   1.00000

Frozen or restrained atoms:
     ibelly  =       0, ntr     =       1
     restraint_wt =   1.00000

Molecular dynamics:
     nstlim  =     10000, nscm    =         0, nrespa  =         1
     t       =   0.00000, dt      =   0.00200, vlimit  =  20.00000

Langevin dynamics temperature regulation:
     ig      =    5402
     temp0   = 298.00000, tempi   = 298.00000, gamma_ln=   1.00000

SHAKE:
     ntc     =       2, jfastw  =       0
     tol     =   0.00001

Ewald parameters:
     verbose =       0, ew_type =       0, nbflag  =       1, use_pme =       1
     vdwmeth =       1, eedmeth =       1, netfrc  =       1
     Box X =   92.775   Box Y =   92.775   Box Z =   92.775
     Alpha =  109.471   Beta  =  109.471   Gamma =  109.471
     NFFT1 =   96       NFFT2 =   96       NFFT3 =   96
     Cutoff=   10.000   Tol   =0.100E-04
     Ewald Coefficient =  0.27511
     Interpolation order =    4

    LOADING THE CONSTRAINED ATOMS AS GROUPS

   5.  REFERENCE ATOM COORDINATES

  defa
     Mask !:WAT & !@H; matches  2731 atoms

--------------------------------------------------------------------------------
   3.  ATOMIC COORDINATES AND VELOCITIES
--------------------------------------------------------------------------------

default_name
 begin time read from input coords =     0.000 ps

 Number of triangulated 3-point waters found:    17390

     Sum of charges from parm topology file =  -0.00202102
     Forcing neutrality...

--------------------------------------------------------------------------------
   4.  RESULTS
 NSTEP =        0   TIME(PS) =       0.000  TEMP(K) =   440.34  PRESS =     0.0
 Etot   =   -254760.9258  EKtot   =     48839.9726  EPtot      =   -303600.8984
 BOND   =       143.8894  ANGLE   =       586.3681  DIHED      =     -1555.5854
 1-4 NB =       573.6977  1-4 EEL =     10997.4573  VDWAALS    =     63982.4730
 EELEC  =   -378329.1985  EHBOND  =         0.0000  RESTRAINT  =         0.0000
 Ewald error estimate:   0.1097E-03
 ------------------------------------------------------------------------------

      A V E R A G E S   O V E R   10000 S T E P S

 NSTEP =    10000   TIME(PS) =      20.000  TEMP(K) =   290.36  PRESS =     0.0
 Etot   =   -187500.6827  EKtot   =     32205.0182  EPtot      =   -219705.7009
 BOND   =       565.9926  ANGLE   =      1602.4262  DIHED      =     -1352.8855
 1-4 NB =       647.3640  1-4 EEL =     10960.2863  VDWAALS    =     37792.9605
 EELEC  =   -270230.3840  EHBOND  =         0.0000  RESTRAINT  =       308.5390
 EAMBER (non-restraint)  =   -220014.2400
 Ewald error estimate:   0.6585E-04
 ------------------------------------------------------------------------------

      R M S  F L U C T U A T I O N S

 NSTEP =    10000   TIME(PS) =      20.000  TEMP(K) =    21.44  PRESS =     0.0
 Etot   =      5518.7712  EKtot   =      2377.7584  EPtot      =      3266.6748
 BOND   =        38.3186  ANGLE   =        79.8810  DIHED      =        19.6153
 1-4 NB =        11.4147  1-4 EEL =        31.4758  VDWAALS    =      2099.4524
 EELEC  =      5058.4536  EHBOND  =         0.0000  RESTRAINT  =        37.7779
 EAMBER (non-restraint)  =      3228.8969
 Ewald error estimate:   0.4144E-04
 ------------------------------------------------------------------------------
