-------------------------------------------------------
          Amber 18 SANDER                              2018
          -------------------------------------------------------

  [-O]verwriting output

File Assignments:

 Here is the input file:

PCS Restrainted 1 ns NPT production using Langevin thermostat and MC barostat
&cntrl
  irest     = 1,
  ! no velicities from minimization so start new simulation
  !irest     = 0,
  ntx       = 5,
  ! set to 1 since no velocities read from minimization
  !ntx       = 1,
  ig        = -1,
  dt        = 0.002,
  nstlim    = 500000,
  nscm      = 500,
  ! turn on nmr restraints
  nmropt    = 2,
  ! use sum of squares optimization of errors
  ipnlty    = 2,
  ntr       = 0,
  ntb       = 2,
  ntp       = 1,
  barostat  = 2,
  pres0     = 1.0,
  mcbarint  = 100,
  comp      = 44.6,
  taup      = 1.0,
  ntt       = 3,
  temp0     = 298.0,
  gamma_ln  = 1.0,
  ntf       = 2,
  ntc       = 2,
  cut       = 10.0,
  ntpr      = 500,
  ntxo      = 2,
  ntwr      = 500000,
  ioutfm    = 1,
  ntwx      = 500,
  iwrap     = 1,
&end
! This essentially starts the nmr restraints after the first step
&wt
  type      = "REST",
  istep1    = 0,
  istep2    = 1,
  value1    = 0,
  value2    = 1.0,
  ! since starting from rest min, use restraints the whole time
  !value1    = 1.0,
&end
&wt
  type      = "END",
&end
PCSHIFT     = pcs-ntaco.in
LISTOUT     = POUT

--------------------------------------------------------------------------------
   1.  RESOURCE   USE:
--------------------------------------------------------------------------------

 getting box info from netcdf restart file
 NATOM  =   13749 NTYPES =      25 NBONH =   13263 MBONA  =     457
 NTHETH =     947 MTHETA =     620 NPHIH =    1858 MPHIA  =    2027
 NHPARM =       0 NPARM  =       0 NNB   =   21903 NRES   =    4375
 NBONA  =     457 NTHETA =     620 NPHIA =    2027 NUMBND =      80
 NUMANG =     174 NPTRA  =     338 NATYP =      48 NPHB   =       0
 IFBOX  =       2 NMXRS  =      24 IFCAP =       0 NEXTRA =       0
 NCOPY  =       0

     BOX TYPE: TRUNCATED OCTAHEDRON
Note: ig = -1. Setting random seed to   252455 based on wallclock time in microseconds
      and disabling the synchronization of random numbers between tasks
      to improve performance.

--------------------------------------------------------------------------------
   2.  CONTROL  DATA  FOR  THE  RUN
--------------------------------------------------------------------------------

default_name

General flags:
     imin    =       0, nmropt  =       2

Nature and format of input:
     ntx     =       5, irest   =       1, ntrx    =       1

Nature and format of output:
     ntxo    =       2, ntpr    =     500, ntrx    =       1, ntwr    =  500000
     iwrap   =       1, ntwx    =     500, ntwv    =       0, ntwe    =       0
     ioutfm  =       1, ntwprt  =       0, idecomp =       0, rbornstat=      0

Potential function:
     ntf     =       2, ntb     =       2, igb     =       0, nsnb    =      25
     ipol    =       0, gbsa    =       0, iesp    =       0
     dielc   =   1.00000, cut     =  10.00000, intdiel =   1.00000

Frozen or restrained atoms:
     ibelly  =       0, ntr     =       0

Molecular dynamics:
     nstlim  =    500000, nscm    =       500, nrespa  =         1
     t       =   0.00000, dt      =   0.00200, vlimit  =  20.00000

Langevin dynamics temperature regulation:
     ig      =  252455
     temp0   = 298.00000, tempi   =   0.00000, gamma_ln=   1.00000

Pressure regulation:
     ntp     =       1
     pres0   =   1.00000, comp    =  44.60000, taup    =   1.00000
     Monte-Carlo Barostat:
     mcbarint  =     100

SHAKE:
     ntc     =       2, jfastw  =       0
     tol     =   0.00001

NMR refinement options:
     iscale  =       0, noeskp  =       1, ipnlty  =       2, mxsub   =       1
     scalm   = 100.00000, pencut  =   0.10000, tausw   =   0.10000

Ewald parameters:
     verbose =       0, ew_type =       0, nbflag  =       1, use_pme =       1
     vdwmeth =       1, eedmeth =       1, netfrc  =       1
     Box X =   55.970   Box Y =   55.970   Box Z =   55.970
     Alpha =  109.471   Beta  =  109.471   Gamma =  109.471
     NFFT1 =   60       NFFT2 =   60       NFFT3 =   60
     Cutoff=   10.000   Tol   =0.100E-04
     Ewald Coefficient =  0.27511
     Interpolation order =    4

--------------------------------------------------------------------------------
   3.  ATOMIC COORDINATES AND VELOCITIES
--------------------------------------------------------------------------------

default_name
 begin time read from input coords =  1020.000 ps

           Begin reading energy term weight changes/NMR restraints
 WEIGHT CHANGES:
 REST          0      1    0.000000    1.000000      0      0

 RESTRAINTS:
 Requested file redirections:
  PCSHIFT   = pcs-ntaco.in
  LISTOUT   = POUT
                          ** No restraint defined **

                  Done reading weight changes/NMR restraints

 Number of triangulated 3-point waters found:     4282

     Sum of charges from parm topology file =   0.00099530
     Forcing neutrality...

--------------------------------------------------------------------------------
   4.  RESULTS
 NSTEP =      500   TIME(PS) =    1021.000  TEMP(K) =   303.41  PRESS =   -76.6
 Etot   =    -48300.9283  EKtot   =      8436.1646  EPtot      =    -56737.0928
 BOND   =       182.1427  ANGLE   =       501.6299  DIHED      =      -239.9847
 1-4 NB =       207.7963  1-4 EEL =      4683.6526  VDWAALS    =      9774.1542
 EELEC  =    -71861.1082  EHBOND  =         0.0000  RESTRAINT  =        14.6243
 EAMBER (non-restraint)  =    -56751.7171
 EKCMT  =      3954.7099  VIRIAL  =      4178.5271  VOLUME     =    135391.9529
                                                    Density    =         1.0374
 Ewald error estimate:   0.1019E-03
 ------------------------------------------------------------------------------

      A V E R A G E S   O V E R  500000 S T E P S

 NSTEP =   500000   TIME(PS) =    2020.000  TEMP(K) =   297.92  PRESS =    11.0
 Etot   =    -48293.5728  EKtot   =      8283.5725  EPtot      =    -56577.1454
 BOND   =       175.1993  ANGLE   =       489.0601  DIHED      =      -246.3700
 1-4 NB =       208.2475  1-4 EEL =      4719.4963  VDWAALS    =      9723.7282
 EELEC  =    -71661.0358  EHBOND  =         0.0000  RESTRAINT  =        14.5291
 EAMBER (non-restraint)  =    -56591.6744
 EKCMT  =      3854.4185  VIRIAL  =      3823.2763  VOLUME     =    134925.5844
                                                    Density    =         1.0410
 Ewald error estimate:   0.8190E-04
 ------------------------------------------------------------------------------

      R M S  F L U C T U A T I O N S

 NSTEP =   500000   TIME(PS) =    2020.000  TEMP(K) =     2.50  PRESS =   241.9
 Etot   =       126.4340  EKtot   =        69.6345  EPtot      =       107.6517
 BOND   =        11.2308  ANGLE   =        16.8751  DIHED      =         9.4375
 1-4 NB =         6.2294  1-4 EEL =        26.1301  VDWAALS    =       123.3988
 EELEC  =       187.9217  EHBOND  =         0.0000  RESTRAINT  =         0.0489
 EAMBER (non-restraint)  =       107.6028
 EKCMT  =        48.3245  VIRIAL  =       702.1022  VOLUME     =       500.7798
                                                    Density    =         0.0039
 Ewald error estimate:   0.6167E-04
 ------------------------------------------------------------------------------
