-------------------------------------------------------
          Amber 18 PMEMD                              2018
          -------------------------------------------------------

  [-O]verwriting output

File Assignments:

 Here is the input file:

20 ps solute restrained NVT equilibration using Langevin thermostat
&cntrl
  irest     = 0,
  ntx       = 1,
  ig        = -1,
  dt        = 0.002,
  nstlim    = 10000,
  nscm      = 500,
  ntr       = 1,
  restraint_wt  = 1.0,
  restraintmask = '!:WAT & !@H',
  ntb       = 1,
  ntp       = 0,
  ntt       = 3,
  tempi     = 298.0,
  temp0     = 298.0,
  gamma_ln  = 1.0,
  ntf       = 2,
  ntc       = 2,
  cut       = 10.0,
  ntpr      = 500,
  ntxo      = 2,
  ntwr      = 10000,
  ioutfm    = 1,
  ntwx      = 500,
  iwrap     = 1,
&end

Note: ig = -1. Setting random seed to   297126 based on wallclock time in
      microseconds and disabling the synchronization of random numbers
      between tasks to improve performance.

--------------------------------------------------------------------------------
   1.  RESOURCE   USE:
--------------------------------------------------------------------------------

 getting box info from netcdf restart file
 NATOM  =   13749 NTYPES =      25 NBONH =   13263 MBONA  =     457
 NTHETH =     947 MTHETA =     620 NPHIH =    1858 MPHIA  =    2027
 NHPARM =       0 NPARM  =       0 NNB   =   21903 NRES   =    4375
 NBONA  =     457 NTHETA =     620 NPHIA =    2027 NUMBND =      80
 NUMANG =     174 NPTRA  =     338 NATYP =      48 NPHB   =       0
 IFBOX  =       2 NMXRS  =      24 IFCAP =       0 NEXTRA =       0
 NCOPY  =       0

     BOX TYPE: TRUNCATED OCTAHEDRON

--------------------------------------------------------------------------------
   2.  CONTROL  DATA  FOR  THE  RUN
--------------------------------------------------------------------------------

default_name

General flags:
     imin    =       0, nmropt  =       0

Nature and format of input:
     ntx     =       1, irest   =       0, ntrx    =       1

Nature and format of output:
     ntxo    =       2, ntpr    =     500, ntrx    =       1, ntwr    =   10000
     iwrap   =       1, ntwx    =     500, ntwv    =       0, ntwe    =       0
     ioutfm  =       1, ntwprt  =       0, idecomp =       0, rbornstat=      0

Potential function:
     ntf     =       2, ntb     =       1, igb     =       0, nsnb    =      25
     ipol    =       0, gbsa    =       0, iesp    =       0
     dielc   =   1.00000, cut     =  10.00000, intdiel =   1.00000

Frozen or restrained atoms:
     ibelly  =       0, ntr     =       1
     restraint_wt =   1.00000

Molecular dynamics:
     nstlim  =     10000, nscm    =         0, nrespa  =         1
     t       =   0.00000, dt      =   0.00200, vlimit  =  20.00000

Langevin dynamics temperature regulation:
     ig      =  297126
     temp0   = 298.00000, tempi   = 298.00000, gamma_ln=   1.00000

SHAKE:
     ntc     =       2, jfastw  =       0
     tol     =   0.00001

Ewald parameters:
     verbose =       0, ew_type =       0, nbflag  =       1, use_pme =       1
     vdwmeth =       1, eedmeth =       1, netfrc  =       1
     Box X =   59.349   Box Y =   59.349   Box Z =   59.349
     Alpha =  109.471   Beta  =  109.471   Gamma =  109.471
     NFFT1 =   60       NFFT2 =   60       NFFT3 =   60
     Cutoff=   10.000   Tol   =0.100E-04
     Ewald Coefficient =  0.27511
     Interpolation order =    4

    LOADING THE CONSTRAINED ATOMS AS GROUPS

   5.  REFERENCE ATOM COORDINATES

  default_name
     Mask !:WAT & !@H; matches   848 atoms

--------------------------------------------------------------------------------
   3.  ATOMIC COORDINATES AND VELOCITIES
--------------------------------------------------------------------------------

default_name
 begin time read from input coords =     0.000 ps

 Number of triangulated 3-point waters found:     4282

     Sum of charges from parm topology file =   0.00099530
     Forcing neutrality...

--------------------------------------------------------------------------------
   4.  RESULTS
 NSTEP =        0   TIME(PS) =       0.000  TEMP(K) =   437.46  PRESS =     0.0
 Etot   =    -63577.3705  EKtot   =     12163.4624  EPtot      =    -75740.8329
 BOND   =        35.5491  ANGLE   =       174.9748  DIHED      =      -307.4687
 1-4 NB =       187.9816  1-4 EEL =      4694.8511  VDWAALS    =     15982.8889
 EELEC  =    -96509.6097  EHBOND  =         0.0000  RESTRAINT  =         0.0000
 Ewald error estimate:   0.1877E-03
 ------------------------------------------------------------------------------

      A V E R A G E S   O V E R      20 S T E P S

 NSTEP =    10000   TIME(PS) =      20.000  TEMP(K) =   293.11  PRESS =     0.0
 Etot   =    -46914.6947  EKtot   =      8149.7448  EPtot      =    -55064.4395
 BOND   =       177.0120  ANGLE   =       483.1380  DIHED      =      -239.0422
 1-4 NB =       207.2552  1-4 EEL =      4685.1177  VDWAALS    =      9116.7322
 EELEC  =    -69588.6547  EHBOND  =         0.0000  RESTRAINT  =        94.0024
 EAMBER (non-restraint)  =    -55158.4419
 Ewald error estimate:   0.9468E-04
 ------------------------------------------------------------------------------

      R M S  F L U C T U A T I O N S

 NSTEP =    10000   TIME(PS) =      20.000  TEMP(K) =    11.98  PRESS =     0.0
 Etot   =       753.0739  EKtot   =       332.9709  EPtot      =       426.1192
 BOND   =        11.6632  ANGLE   =        16.0038  DIHED      =         6.6457
 1-4 NB =         7.0623  1-4 EEL =        20.4908  VDWAALS    =       215.2786
 EELEC  =       615.5801  EHBOND  =         0.0000  RESTRAINT  =         9.4760
 EAMBER (non-restraint)  =       416.6431
 Ewald error estimate:   0.5869E-04
 ------------------------------------------------------------------------------
